22
C7H11O4
C    -0.29    -0.14    -0.04
C    -1.80    -0.15     0.15
C     0.70    -1.20     0.23
C     1.82     0.75    -0.50
C     0.58    -2.62    -0.39
C     2.55     1.66     0.53
C    -3.71     1.30    -0.34
O    -2.34    -1.21     0.47
O     1.99    -0.58     0.01
O     0.47     1.08    -0.50
O    -2.32     1.08    -0.00
H     0.56    -1.30     1.30
H     2.25     0.92    -1.51
H     0.35    -2.73    -1.39
H    -0.27    -3.23     0.16
H     1.40    -3.33    -0.19
H     2.25     1.49     1.50
H     2.43     2.75     0.39
H     3.69     1.50     0.61
H    -4.35     0.45    -0.73
H    -3.83     1.99    -1.17
H    -4.35     1.54     0.39